*SPEF "IEEE 1481-1998"
*DESIGN "cic"
*DATE "Fri Feb  6 12:41:22 2026"
*VENDOR "Cadence Design Systems, Inc."
*PROGRAM "Innovus"
*VERSION "21.15-s110_1"
*DESIGN_FLOW "PIN_CAP NONE" "NAME_SCOPE LOCAL"
*DIVIDER /
*DELIMITER :
*BUS_DELIMITER []
*T_UNIT 1 NS
*C_UNIT 1 PF
*R_UNIT 1 OHM
*L_UNIT 1 HENRY

// MMMC spef file for corner 'rc_nom'

*NAME_MAP

*1 RC_CG_HIER_INST3/LTIELO_NET
*2 RC_CG_HIER_INST2/LTIELO_NET
*3 RC_CG_HIER_INST1/LTIELO_NET
*4 FE_OFN2_n_0
*5 FE_OFN1_n_0
*6 FE_OFN0_n_0
*7 clk
*8 rst
*9 d_in[3]
*10 d_in[2]
*11 d_in[1]
*12 d_in[0]
*13 ce_1
*14 ce_2
*15 d_out[3]
*16 d_out[2]
*17 d_out[1]
*18 d_out[0]
*19 comb\[0\][19]
*20 comb\[0\][18]
*21 comb\[0\][17]
*22 comb\[0\][16]
*23 comb\[0\][15]
*24 comb\[0\][14]
*25 comb\[0\][13]
*26 comb\[0\][12]
*27 comb\[0\][11]
*28 comb\[0\][10]
*29 comb\[0\][9]
*30 comb\[0\][8]
*31 comb\[0\][7]
*32 comb\[0\][6]
*33 comb\[0\][5]
*34 comb\[0\][4]
*35 comb\[0\][3]
*36 comb\[0\][2]
*37 comb\[0\][1]
*38 comb\[0\][0]
*39 d_comb\[1\]\[0\][19]
*40 d_comb\[1\]\[0\][18]
*41 d_comb\[1\]\[0\][17]
*42 d_comb\[1\]\[0\][16]
*43 d_comb\[1\]\[0\][15]
*44 d_comb\[1\]\[0\][14]
*45 d_comb\[1\]\[0\][13]
*46 d_comb\[1\]\[0\][12]
*47 d_comb\[1\]\[0\][11]
*48 d_comb\[1\]\[0\][10]
*49 d_comb\[1\]\[0\][9]
*50 d_comb\[1\]\[0\][8]
*51 d_comb\[1\]\[0\][7]
*52 d_comb\[1\]\[0\][6]
*53 d_comb\[1\]\[0\][5]
*54 d_comb\[1\]\[0\][4]
*55 d_comb\[1\]\[0\][3]
*56 d_comb\[1\]\[0\][2]
*57 d_comb\[1\]\[0\][1]
*58 d_comb\[1\]\[0\][0]
*59 comb\[1\][19]
*60 comb\[1\][18]
*61 comb\[1\][17]
*62 comb\[1\][16]
*63 comb\[1\][15]
*64 comb\[1\][14]
*65 comb\[1\][13]
*66 comb\[1\][12]
*67 comb\[1\][11]
*68 comb\[1\][10]
*69 comb\[1\][9]
*70 comb\[1\][8]
*71 comb\[1\][7]
*72 comb\[1\][6]
*73 comb\[1\][5]
*74 comb\[1\][4]
*75 comb\[1\][3]
*76 comb\[1\][2]
*77 comb\[1\][1]
*78 comb\[1\][0]
*79 d_comb\[2\]\[0\][19]
*80 d_comb\[2\]\[0\][18]
*81 d_comb\[2\]\[0\][17]
*82 d_comb\[2\]\[0\][16]
*83 d_comb\[2\]\[0\][15]
*84 d_comb\[2\]\[0\][14]
*85 d_comb\[2\]\[0\][13]
*86 d_comb\[2\]\[0\][12]
*87 d_comb\[2\]\[0\][11]
*88 d_comb\[2\]\[0\][10]
*89 d_comb\[2\]\[0\][9]
*90 d_comb\[2\]\[0\][8]
*91 d_comb\[2\]\[0\][7]
*92 d_comb\[2\]\[0\][6]
*93 d_comb\[2\]\[0\][5]
*94 d_comb\[2\]\[0\][4]
*95 d_comb\[2\]\[0\][3]
*96 d_comb\[2\]\[0\][2]
*97 d_comb\[2\]\[0\][1]
*98 d_comb\[2\]\[0\][0]
*99 comb\[2\][19]
*100 comb\[2\][18]
*101 comb\[2\][17]
*102 comb\[2\][16]
*103 comb\[2\][15]
*104 comb\[2\][14]
*105 comb\[2\][13]
*106 comb\[2\][12]
*107 comb\[2\][11]
*108 comb\[2\][10]
*109 comb\[2\][9]
*110 comb\[2\][8]
*111 comb\[2\][7]
*112 comb\[2\][6]
*113 comb\[2\][5]
*114 comb\[2\][4]
*115 comb\[2\][3]
*116 comb\[2\][2]
*117 comb\[2\][1]
*118 comb\[2\][0]
*119 d_comb\[3\]\[0\][19]
*120 d_comb\[3\]\[0\][18]
*121 d_comb\[3\]\[0\][17]
*122 d_comb\[3\]\[0\][16]
*123 d_comb\[3\]\[0\][15]
*124 d_comb\[3\]\[0\][14]
*125 d_comb\[3\]\[0\][13]
*126 d_comb\[3\]\[0\][12]
*127 d_comb\[3\]\[0\][11]
*128 d_comb\[3\]\[0\][10]
*129 d_comb\[3\]\[0\][9]
*130 d_comb\[3\]\[0\][8]
*131 d_comb\[3\]\[0\][7]
*132 d_comb\[3\]\[0\][6]
*133 d_comb\[3\]\[0\][5]
*134 d_comb\[3\]\[0\][4]
*135 d_comb\[3\]\[0\][3]
*136 d_comb\[3\]\[0\][2]
*137 d_comb\[3\]\[0\][1]
*138 d_comb\[3\]\[0\][0]
*139 d_comb\[3\]\[1\][19]
*140 d_comb\[3\]\[1\][18]
*141 d_comb\[3\]\[1\][17]
*142 d_comb\[3\]\[1\][16]
*143 d_comb\[3\]\[1\][15]
*144 d_comb\[3\]\[1\][14]
*145 d_comb\[3\]\[1\][13]
*146 d_comb\[3\]\[1\][12]
*147 d_comb\[3\]\[1\][11]
*148 d_comb\[3\]\[1\][10]
*149 d_comb\[3\]\[1\][9]
*150 d_comb\[3\]\[1\][8]
*151 d_comb\[3\]\[1\][7]
*152 d_comb\[3\]\[1\][6]
*153 d_comb\[3\]\[1\][5]
*154 d_comb\[3\]\[1\][4]
*155 d_comb\[3\]\[1\][3]
*156 d_comb\[3\]\[1\][2]
*157 d_comb\[3\]\[1\][1]
*158 d_comb\[3\]\[1\][0]
*159 d_comb\[0\]\[0\][19]
*160 d_comb\[0\]\[0\][18]
*161 d_comb\[0\]\[0\][17]
*162 d_comb\[0\]\[0\][16]
*163 d_comb\[0\]\[0\][15]
*164 d_comb\[0\]\[0\][14]
*165 d_comb\[0\]\[0\][13]
*166 d_comb\[0\]\[0\][12]
*167 d_comb\[0\]\[0\][11]
*168 d_comb\[0\]\[0\][10]
*169 d_comb\[0\]\[0\][9]
*170 d_comb\[0\]\[0\][8]
*171 d_comb\[0\]\[0\][7]
*172 d_comb\[0\]\[0\][6]
*173 d_comb\[0\]\[0\][5]
*174 d_comb\[0\]\[0\][4]
*175 d_comb\[0\]\[0\][3]
*176 d_comb\[0\]\[0\][2]
*177 d_comb\[0\]\[0\][1]
*178 d_comb\[0\]\[0\][0]
*179 d_comb\[0\]\[1\][19]
*180 d_comb\[0\]\[1\][18]
*181 d_comb\[0\]\[1\][17]
*182 d_comb\[0\]\[1\][16]
*183 d_comb\[0\]\[1\][15]
*184 d_comb\[0\]\[1\][14]
*185 d_comb\[0\]\[1\][13]
*186 d_comb\[0\]\[1\][12]
*187 d_comb\[0\]\[1\][11]
*188 d_comb\[0\]\[1\][10]
*189 d_comb\[0\]\[1\][9]
*190 d_comb\[0\]\[1\][8]
*191 d_comb\[0\]\[1\][7]
*192 d_comb\[0\]\[1\][6]
*193 d_comb\[0\]\[1\][5]
*194 d_comb\[0\]\[1\][4]
*195 d_comb\[0\]\[1\][3]
*196 d_comb\[0\]\[1\][2]
*197 d_comb\[0\]\[1\][1]
*198 d_comb\[0\]\[1\][0]
*199 d_tmp[19]
*200 d_tmp[18]
*201 d_tmp[17]
*202 d_tmp[16]
*203 d_tmp[15]
*204 d_tmp[14]
*205 d_tmp[13]
*206 d_tmp[12]
*207 d_tmp[11]
*208 d_tmp[10]
*209 d_tmp[9]
*210 d_tmp[8]
*211 d_tmp[7]
*212 d_tmp[6]
*213 d_tmp[5]
*214 d_tmp[4]
*215 d_tmp[3]
*216 d_tmp[2]
*217 d_tmp[1]
*218 d_tmp[0]
*219 integrator\[3\][19]
*220 integrator\[3\][18]
*221 integrator\[3\][17]
*222 integrator\[3\][16]
*223 integrator\[3\][15]
*224 integrator\[3\][14]
*225 integrator\[3\][13]
*226 integrator\[3\][12]
*227 integrator\[3\][11]
*228 integrator\[3\][10]
*229 integrator\[3\][9]
*230 integrator\[3\][8]
*231 integrator\[3\][7]
*232 integrator\[3\][6]
*233 integrator\[3\][5]
*234 integrator\[3\][4]
*235 integrator\[3\][3]
*236 integrator\[3\][2]
*237 integrator\[3\][1]
*238 integrator\[3\][0]
*239 integrator\[0\][19]
*240 integrator\[0\][18]
*241 integrator\[0\][17]
*242 integrator\[0\][16]
*243 integrator\[0\][15]
*244 integrator\[0\][14]
*245 integrator\[0\][13]
*246 integrator\[0\][12]
*247 integrator\[0\][11]
*248 integrator\[0\][10]
*249 integrator\[0\][9]
*250 integrator\[0\][8]
*251 integrator\[0\][7]
*252 integrator\[0\][6]
*253 integrator\[0\][5]
*254 integrator\[0\][4]
*255 integrator\[0\][3]
*256 integrator\[0\][2]
*257 integrator\[0\][1]
*258 integrator\[0\][0]
*259 integrator\[2\][19]
*260 integrator\[2\][18]
*261 integrator\[2\][17]
*262 integrator\[2\][16]
*263 integrator\[2\][15]
*264 integrator\[2\][14]
*265 integrator\[2\][13]
*266 integrator\[2\][12]
*267 integrator\[2\][11]
*268 integrator\[2\][10]
*269 integrator\[2\][9]
*270 integrator\[2\][8]
*271 integrator\[2\][7]
*272 integrator\[2\][6]
*273 integrator\[2\][5]
*274 integrator\[2\][4]
*275 integrator\[2\][3]
*276 integrator\[2\][2]
*277 integrator\[2\][1]
*278 integrator\[2\][0]
*279 integrator\[1\][19]
*280 integrator\[1\][18]
*281 integrator\[1\][17]
*282 integrator\[1\][16]
*283 integrator\[1\][15]
*284 integrator\[1\][14]
*285 integrator\[1\][13]
*286 integrator\[1\][12]
*287 integrator\[1\][11]
*288 integrator\[1\][10]
*289 integrator\[1\][9]
*290 integrator\[1\][8]
*291 integrator\[1\][7]
*292 integrator\[1\][6]
*293 integrator\[1\][5]
*294 integrator\[1\][4]
*295 integrator\[1\][3]
*296 integrator\[1\][2]
*297 integrator\[1\][1]
*298 integrator\[1\][0]
*299 d_comb\[1\]\[1\][19]
*300 d_comb\[1\]\[1\][18]
*301 d_comb\[1\]\[1\][17]
*302 d_comb\[1\]\[1\][16]
*303 d_comb\[1\]\[1\][15]
*304 d_comb\[1\]\[1\][14]
*305 d_comb\[1\]\[1\][13]
*306 d_comb\[1\]\[1\][12]
*307 d_comb\[1\]\[1\][11]
*308 d_comb\[1\]\[1\][10]
*309 d_comb\[1\]\[1\][9]
*310 d_comb\[1\]\[1\][8]
*311 d_comb\[1\]\[1\][7]
*312 d_comb\[1\]\[1\][6]
*313 d_comb\[1\]\[1\][5]
*314 d_comb\[1\]\[1\][4]
*315 d_comb\[1\]\[1\][3]
*316 d_comb\[1\]\[1\][2]
*317 d_comb\[1\]\[1\][1]
*318 d_comb\[1\]\[1\][0]
*319 d_comb\[2\]\[1\][19]
*320 d_comb\[2\]\[1\][18]
*321 d_comb\[2\]\[1\][17]
*322 d_comb\[2\]\[1\][16]
*323 d_comb\[2\]\[1\][15]
*324 d_comb\[2\]\[1\][14]
*325 d_comb\[2\]\[1\][13]
*326 d_comb\[2\]\[1\][12]
*327 d_comb\[2\]\[1\][11]
*328 d_comb\[2\]\[1\][10]
*329 d_comb\[2\]\[1\][9]
*330 d_comb\[2\]\[1\][8]
*331 d_comb\[2\]\[1\][7]
*332 d_comb\[2\]\[1\][6]
*333 d_comb\[2\]\[1\][5]
*334 d_comb\[2\]\[1\][4]
*335 d_comb\[2\]\[1\][3]
*336 d_comb\[2\]\[1\][2]
*337 d_comb\[2\]\[1\][1]
*338 d_comb\[2\]\[1\][0]
*339 ADD_TC_OP_1_n_0
*340 ADD_TC_OP_1_n_2
*341 ADD_TC_OP_1_n_4
*342 ADD_TC_OP_1_n_6
*343 ADD_TC_OP_1_n_8
*344 ADD_TC_OP_1_n_10
*345 ADD_TC_OP_1_n_12
*346 ADD_TC_OP_1_n_14
*347 ADD_TC_OP_1_n_16
*348 ADD_TC_OP_1_n_18
*349 ADD_TC_OP_1_n_20
*350 ADD_TC_OP_1_n_22
*351 ADD_TC_OP_1_n_24
*352 ADD_TC_OP_1_n_26
*353 ADD_TC_OP_1_n_28
*354 ADD_TC_OP_1_n_30
*355 ADD_TC_OP_1_n_32
*356 ADD_TC_OP_1_n_34
*357 ADD_TC_OP_1_n_36
*358 ADD_TC_OP_2_n_0
*359 ADD_TC_OP_2_n_2
*360 ADD_TC_OP_2_n_4
*361 ADD_TC_OP_2_n_6
*362 ADD_TC_OP_2_n_8
*363 ADD_TC_OP_2_n_10
*364 ADD_TC_OP_2_n_12
*365 ADD_TC_OP_2_n_14
*366 ADD_TC_OP_2_n_16
*367 ADD_TC_OP_2_n_18
*368 ADD_TC_OP_2_n_20
*369 ADD_TC_OP_2_n_22
*370 ADD_TC_OP_2_n_24
*371 ADD_TC_OP_2_n_26
*372 ADD_TC_OP_2_n_28
*373 ADD_TC_OP_2_n_30
*374 ADD_TC_OP_2_n_32
*375 ADD_TC_OP_2_n_34
*376 ADD_TC_OP_2_n_36
*377 ADD_TC_OP_3_n_0
*378 ADD_TC_OP_3_n_2
*379 ADD_TC_OP_3_n_4
*380 ADD_TC_OP_3_n_6
*381 ADD_TC_OP_3_n_8
*382 ADD_TC_OP_3_n_10
*383 ADD_TC_OP_3_n_12
*384 ADD_TC_OP_3_n_14
*385 ADD_TC_OP_3_n_16
*386 ADD_TC_OP_3_n_18
*387 ADD_TC_OP_3_n_20
*388 ADD_TC_OP_3_n_22
*389 ADD_TC_OP_3_n_24
*390 ADD_TC_OP_3_n_26
*391 ADD_TC_OP_3_n_28
*392 ADD_TC_OP_3_n_30
*393 ADD_TC_OP_3_n_32
*394 ADD_TC_OP_3_n_34
*395 ADD_TC_OP_3_n_36
*396 ADD_TC_OP_n_0
*397 ADD_TC_OP_n_2
*398 ADD_TC_OP_n_4
*399 ADD_TC_OP_n_6
*400 ADD_TC_OP_n_8
*401 ADD_TC_OP_n_10
*402 ADD_TC_OP_n_12
*403 ADD_TC_OP_n_14
*404 ADD_TC_OP_n_16
*405 ADD_TC_OP_n_18
*406 ADD_TC_OP_n_20
*407 ADD_TC_OP_n_22
*408 ADD_TC_OP_n_24
*409 ADD_TC_OP_n_26
*410 ADD_TC_OP_n_28
*411 ADD_TC_OP_n_30
*412 ADD_TC_OP_n_32
*413 ADD_TC_OP_n_34
*414 ADD_TC_OP_n_36
*415 UNCONNECTED2
*416 UNCONNECTED3
*417 UNCONNECTED4
*418 UNCONNECTED5
*419 UNCONNECTED6
*420 UNCONNECTED7
*421 UNCONNECTED8
*422 UNCONNECTED9
*423 UNCONNECTED10
*424 UNCONNECTED11
*425 UNCONNECTED12
*426 n_0
*427 n_3
*428 n_5
*429 n_6
*430 n_7
*431 n_8
*432 n_9
*433 n_10
*434 n_11
*435 n_12
*436 n_13
*437 n_14
*438 n_15
*439 n_16
*440 n_17
*441 n_18
*442 n_19
*443 n_20
*444 n_21
*445 n_22
*446 n_23
*447 n_24
*448 n_25
*449 n_26
*450 n_27
*451 n_28
*452 n_29
*453 n_30
*454 n_31
*455 n_32
*456 n_33
*457 n_34
*458 n_35
*459 n_36
*460 n_37
*461 n_38
*462 n_39
*463 n_40
*464 n_41
*465 n_42
*466 n_43
*467 n_44
*468 n_45
*469 n_46
*470 n_47
*471 n_48
*472 n_49
*473 n_50
*474 n_60
*475 n_62
*476 n_63
*477 n_64
*478 n_65
*479 n_66
*480 n_67
*481 n_68
*482 n_69
*483 n_70
*484 n_71
*485 n_72
*486 n_73
*487 n_74
*488 n_75
*489 n_76
*490 n_77
*491 n_78
*492 n_79
*493 n_80
*494 n_81
*495 n_82
*496 n_83
*497 n_84
*498 n_85
*499 n_86
*500 n_87
*501 n_88
*502 n_89
*503 n_90
*504 n_91
*505 n_92
*506 n_93
*507 n_94
*508 n_95
*509 n_96
*510 n_97
*511 n_98
*512 n_99
*513 n_100
*514 n_101
*515 n_102
*516 n_103
*517 n_104
*518 n_105
*519 n_106
*520 n_107
*521 n_108
*522 n_109
*523 n_110
*524 n_111
*525 n_112
*526 n_113
*527 n_114
*528 n_115
*529 n_116
*530 n_117
*531 n_118
*532 n_119
*533 n_120
*534 n_121
*535 n_122
*536 n_123
*537 n_124
*538 n_125
*539 n_126
*540 n_127
*541 n_128
*542 n_129
*543 n_130
*544 n_131
*545 n_132
*546 n_133
*547 n_134
*548 n_135
*549 n_136
*550 n_137
*551 n_138
*552 n_139
*553 n_140
*554 n_141
*555 rc_gclk
*556 rc_gclk_1227
*557 rc_gclk_1229
*558 sub_72_24_n_0
*559 sub_72_24_n_1
*560 sub_72_24_n_2
*561 sub_72_24_n_3
*562 sub_72_24_n_4
*563 sub_72_24_n_5
*564 sub_72_24_n_6
*565 sub_72_24_n_7
*566 sub_72_24_n_8
*567 sub_72_24_n_9
*568 sub_72_24_n_10
*569 sub_72_24_n_11
*570 sub_72_24_n_12
*571 sub_72_24_n_13
*572 sub_72_24_n_14
*573 sub_72_24_n_15
*574 sub_72_24_n_16
*575 sub_72_24_n_17
*576 sub_72_24_n_18
*577 sub_72_24_n_19
*578 sub_72_24_n_21
*579 sub_72_24_n_23
*580 sub_72_24_n_25
*581 sub_72_24_n_27
*582 sub_72_24_n_29
*583 sub_72_24_n_31
*584 sub_72_24_n_33
*585 sub_72_24_n_35
*586 sub_72_24_n_37
*587 sub_72_24_n_39
*588 sub_72_24_n_41
*589 sub_72_24_n_43
*590 sub_72_24_n_45
*591 sub_72_24_n_47
*592 sub_72_24_n_49
*593 sub_72_24_n_51
*594 sub_72_24_n_53
*595 sub_72_24_n_55
*596 sub_75_30_I1_n_655
*597 sub_75_30_I1_n_657
*598 sub_75_30_I1_n_659
*599 sub_75_30_I1_n_661
*600 sub_75_30_I1_n_663
*601 sub_75_30_I1_n_665
*602 sub_75_30_I1_n_667
*603 sub_75_30_I1_n_669
*604 sub_75_30_I1_n_671
*605 sub_75_30_I1_n_673
*606 sub_75_30_I1_n_675
*607 sub_75_30_I1_n_677
*608 sub_75_30_I1_n_679
*609 sub_75_30_I1_n_681
*610 sub_75_30_I1_n_683
*611 sub_75_30_I1_n_685
*612 sub_75_30_I1_n_687
*613 sub_75_30_I1_n_689
*614 sub_75_30_I1_n_692
*615 sub_75_30_I1_n_695
*616 sub_75_30_I1_n_696
*617 sub_75_30_I1_n_698
*618 sub_75_30_I1_n_699
*619 sub_75_30_I1_n_700
*620 sub_75_30_I1_n_701
*621 sub_75_30_I1_n_702
*622 sub_75_30_I1_n_703
*623 sub_75_30_I1_n_704
*624 sub_75_30_I1_n_705
*625 sub_75_30_I1_n_706
*626 sub_75_30_I1_n_707
*627 sub_75_30_I1_n_708
*628 sub_75_30_I1_n_709
*629 sub_75_30_I1_n_710
*630 sub_75_30_I1_n_711
*631 sub_75_30_I1_n_712
*632 sub_75_30_I1_n_713
*633 sub_75_30_I1_n_714
*634 sub_75_30_I2_n_655
*635 sub_75_30_I2_n_657
*636 sub_75_30_I2_n_659
*637 sub_75_30_I2_n_661
*638 sub_75_30_I2_n_663
*639 sub_75_30_I2_n_665
*640 sub_75_30_I2_n_667
*641 sub_75_30_I2_n_669
*642 sub_75_30_I2_n_671
*643 sub_75_30_I2_n_673
*644 sub_75_30_I2_n_675
*645 sub_75_30_I2_n_677
*646 sub_75_30_I2_n_679
*647 sub_75_30_I2_n_681
*648 sub_75_30_I2_n_683
*649 sub_75_30_I2_n_685
*650 sub_75_30_I2_n_687
*651 sub_75_30_I2_n_689
*652 sub_75_30_I2_n_692
*653 sub_75_30_I2_n_695
*654 sub_75_30_I2_n_696
*655 sub_75_30_I2_n_698
*656 sub_75_30_I2_n_699
*657 sub_75_30_I2_n_700
*658 sub_75_30_I2_n_701
*659 sub_75_30_I2_n_702
*660 sub_75_30_I2_n_703
*661 sub_75_30_I2_n_704
*662 sub_75_30_I2_n_705
*663 sub_75_30_I2_n_706
*664 sub_75_30_I2_n_707
*665 sub_75_30_I2_n_708
*666 sub_75_30_I2_n_709
*667 sub_75_30_I2_n_710
*668 sub_75_30_I2_n_711
*669 sub_75_30_I2_n_712
*670 sub_75_30_I2_n_713
*671 sub_75_30_I2_n_714
*672 RC_CG_HIER_INST1/UNCONNECTED
*673 RC_CG_HIER_INST1/enl
*674 RC_CG_HIER_INST1/n_0
*675 RC_CG_HIER_INST2/UNCONNECTED0
*676 RC_CG_HIER_INST2/enl
*677 RC_CG_HIER_INST2/n_0
*678 RC_CG_HIER_INST3/UNCONNECTED1
*679 RC_CG_HIER_INST3/enl
*680 RC_CG_HIER_INST3/n_0
*681 FE_OFC2_n_0
*682 FE_OFC1_n_0
*683 FE_OFC0_n_0
*684 RC_CG_HIER_INST1/LTIELO
*685 RC_CG_HIER_INST1/enl_reg
*686 RC_CG_HIER_INST1/g11__2398
*687 RC_CG_HIER_INST1/g17__5107
*688 RC_CG_HIER_INST2/LTIELO
*689 RC_CG_HIER_INST2/enl_reg
*690 RC_CG_HIER_INST2/g11__6260
*691 RC_CG_HIER_INST2/g17__4319
*692 RC_CG_HIER_INST3/LTIELO
*693 RC_CG_HIER_INST3/enl_reg
*694 RC_CG_HIER_INST3/g11__8428
*695 RC_CG_HIER_INST3/g17__5526
*696 d_comb_reg\[1\]\[0\]\[0\]
*697 d_comb_reg\[1\]\[0\]\[1\]
*698 d_comb_reg\[1\]\[0\]\[2\]
*699 d_comb_reg\[1\]\[0\]\[3\]
*700 d_comb_reg\[1\]\[0\]\[4\]
*701 d_comb_reg\[1\]\[0\]\[5\]
*702 d_comb_reg\[1\]\[0\]\[6\]
*703 d_comb_reg\[1\]\[0\]\[7\]
*704 d_comb_reg\[1\]\[0\]\[8\]
*705 d_comb_reg\[1\]\[0\]\[9\]
*706 d_comb_reg\[1\]\[0\]\[10\]
*707 d_comb_reg\[1\]\[0\]\[11\]
*708 d_comb_reg\[1\]\[0\]\[12\]
*709 d_comb_reg\[1\]\[0\]\[13\]
*710 d_comb_reg\[1\]\[0\]\[14\]
*711 d_comb_reg\[1\]\[0\]\[15\]
*712 d_comb_reg\[1\]\[0\]\[16\]
*713 d_comb_reg\[1\]\[0\]\[17\]
*714 d_comb_reg\[1\]\[0\]\[18\]
*715 d_comb_reg\[1\]\[0\]\[19\]
*716 d_comb_reg\[2\]\[0\]\[0\]
*717 d_comb_reg\[2\]\[0\]\[1\]
*718 d_comb_reg\[2\]\[0\]\[2\]
*719 d_comb_reg\[2\]\[0\]\[3\]
*720 d_comb_reg\[2\]\[0\]\[4\]
*721 d_comb_reg\[2\]\[0\]\[5\]
*722 d_comb_reg\[2\]\[0\]\[6\]
*723 d_comb_reg\[2\]\[0\]\[7\]
*724 d_comb_reg\[2\]\[0\]\[8\]
*725 d_comb_reg\[2\]\[0\]\[9\]
*726 d_comb_reg\[2\]\[0\]\[10\]
*727 d_comb_reg\[2\]\[0\]\[11\]
*728 d_comb_reg\[2\]\[0\]\[12\]
*729 d_comb_reg\[2\]\[0\]\[13\]
*730 d_comb_reg\[2\]\[0\]\[14\]
*731 d_comb_reg\[2\]\[0\]\[15\]
*732 d_comb_reg\[2\]\[0\]\[16\]
*733 d_comb_reg\[2\]\[0\]\[17\]
*734 d_comb_reg\[2\]\[0\]\[18\]
*735 d_comb_reg\[2\]\[0\]\[19\]
*736 d_comb_reg\[3\]\[0\]\[0\]
*737 d_comb_reg\[3\]\[0\]\[1\]
*738 d_comb_reg\[3\]\[0\]\[2\]
*739 d_comb_reg\[3\]\[0\]\[3\]
*740 d_comb_reg\[3\]\[0\]\[4\]
*741 d_comb_reg\[3\]\[0\]\[5\]
*742 d_comb_reg\[3\]\[0\]\[6\]
*743 d_comb_reg\[3\]\[0\]\[7\]
*744 d_comb_reg\[3\]\[0\]\[8\]
*745 d_comb_reg\[3\]\[0\]\[9\]
*746 d_comb_reg\[3\]\[0\]\[10\]
*747 d_comb_reg\[3\]\[0\]\[11\]
*748 d_comb_reg\[3\]\[0\]\[12\]
*749 d_comb_reg\[3\]\[0\]\[13\]
*750 d_comb_reg\[3\]\[0\]\[14\]
*751 d_comb_reg\[3\]\[0\]\[15\]
*752 d_comb_reg\[3\]\[0\]\[16\]
*753 d_comb_reg\[3\]\[0\]\[17\]
*754 d_comb_reg\[3\]\[0\]\[18\]
*755 d_comb_reg\[3\]\[0\]\[19\]
*756 d_comb_reg\[3\]\[1\]\[0\]
*757 d_comb_reg\[3\]\[1\]\[1\]
*758 d_comb_reg\[3\]\[1\]\[2\]
*759 d_comb_reg\[3\]\[1\]\[3\]
*760 d_comb_reg\[3\]\[1\]\[4\]
*761 d_comb_reg\[3\]\[1\]\[5\]
*762 d_comb_reg\[3\]\[1\]\[6\]
*763 d_comb_reg\[3\]\[1\]\[7\]
*764 d_comb_reg\[3\]\[1\]\[8\]
*765 d_comb_reg\[3\]\[1\]\[9\]
*766 d_comb_reg\[3\]\[1\]\[10\]
*767 d_comb_reg\[3\]\[1\]\[11\]
*768 d_comb_reg\[3\]\[1\]\[12\]
*769 d_comb_reg\[3\]\[1\]\[13\]
*770 d_comb_reg\[3\]\[1\]\[14\]
*771 d_comb_reg\[3\]\[1\]\[15\]
*772 d_comb_reg\[3\]\[1\]\[16\]
*773 d_comb_reg\[3\]\[1\]\[17\]
*774 d_comb_reg\[3\]\[1\]\[18\]
*775 d_comb_reg\[3\]\[1\]\[19\]
*776 g2305__6783
*777 g2306__3680
*778 g2307__1617
*779 g2308__2802
*780 g2309__1705
*781 g2310__5122
*782 g2311__8246
*783 g2312__7098
*784 g2313__6131
*785 g2314__1881
*786 g2315__5115
*787 g2316__7482
*788 g2317__4733
*789 g2318__6161
*790 g2319__9315
*791 g2320__9945
*792 g2321__2883
*793 g2322__2346
*794 g2323__1666
*795 g2324__7410
*796 g2325__6417
*797 g2326__5477
*798 g2327__2398
*799 g2328__5107
*800 g2329__6260
*801 g2330__4319
*802 g2331__8428
*803 g2332__5526
*804 g2333__6783
*805 g2334__3680
*806 g2335
*807 g2336__1617
*808 g2337__2802
*809 g2338__1705
*810 g2339__5122
*811 g2340__8246
*812 g2341__7098
*813 g2342__6131
*814 g2343__1881
*815 g2344__5115
*816 g2345__7482
*817 g2346__4733
*818 g2347__6161
*819 g2348__9315
*820 g2429__9945
*821 g2430
*822 g2431
*823 d_comb_reg\[0\]\[1\]\[0\]
*824 d_comb_reg\[0\]\[1\]\[19\]
*825 d_comb_reg\[0\]\[0\]\[2\]
*826 d_comb_reg\[0\]\[0\]\[3\]
*827 d_comb_reg\[0\]\[0\]\[4\]
*828 d_comb_reg\[0\]\[0\]\[5\]
*829 d_comb_reg\[0\]\[0\]\[6\]
*830 d_comb_reg\[0\]\[0\]\[7\]
*831 d_comb_reg\[0\]\[0\]\[8\]
*832 d_comb_reg\[0\]\[0\]\[9\]
*833 d_comb_reg\[0\]\[0\]\[10\]
*834 d_comb_reg\[0\]\[0\]\[11\]
*835 d_comb_reg\[0\]\[0\]\[12\]
*836 d_comb_reg\[0\]\[0\]\[13\]
*837 d_comb_reg\[0\]\[0\]\[14\]
*838 d_comb_reg\[0\]\[0\]\[0\]
*839 d_comb_reg\[0\]\[0\]\[17\]
*840 d_comb_reg\[0\]\[0\]\[18\]
*841 d_comb_reg\[0\]\[0\]\[1\]
*842 d_comb_reg\[0\]\[0\]\[19\]
*843 d_comb_reg\[0\]\[0\]\[15\]
*844 d_comb_reg\[0\]\[0\]\[16\]
*845 d_tmp_reg\[18\]
*846 d_tmp_reg\[14\]
*847 d_tmp_reg\[6\]
*848 d_tmp_reg\[1\]
*849 d_tmp_reg\[2\]
*850 d_tmp_reg\[3\]
*851 d_tmp_reg\[4\]
*852 d_tmp_reg\[5\]
*853 d_tmp_reg\[7\]
*854 d_tmp_reg\[8\]
*855 d_tmp_reg\[9\]
*856 d_tmp_reg\[10\]
*857 d_tmp_reg\[11\]
*858 d_tmp_reg\[12\]
*859 d_tmp_reg\[13\]
*860 d_tmp_reg\[15\]
*861 d_tmp_reg\[16\]
*862 d_tmp_reg\[17\]
*863 d_tmp_reg\[19\]
*864 integrator_reg\[0\]\[17\]
*865 integrator_reg\[0\]\[1\]
*866 integrator_reg\[0\]\[2\]
*867 integrator_reg\[0\]\[3\]
*868 integrator_reg\[0\]\[4\]
*869 integrator_reg\[3\]\[15\]
*870 integrator_reg\[0\]\[5\]
*871 integrator_reg\[0\]\[6\]
*872 integrator_reg\[0\]\[7\]
*873 integrator_reg\[3\]\[11\]
*874 integrator_reg\[0\]\[8\]
*875 integrator_reg\[0\]\[9\]
*876 integrator_reg\[0\]\[10\]
*877 integrator_reg\[3\]\[7\]
*878 integrator_reg\[0\]\[11\]
*879 integrator_reg\[0\]\[12\]
*880 integrator_reg\[0\]\[13\]
*881 integrator_reg\[0\]\[14\]
*882 integrator_reg\[0\]\[15\]
*883 integrator_reg\[0\]\[16\]
*884 integrator_reg\[0\]\[0\]
*885 integrator_reg\[2\]\[19\]
*886 integrator_reg\[0\]\[18\]
*887 integrator_reg\[0\]\[19\]
*888 integrator_reg\[1\]\[0\]
*889 integrator_reg\[2\]\[15\]
*890 integrator_reg\[1\]\[1\]
*891 integrator_reg\[1\]\[2\]
*892 integrator_reg\[1\]\[3\]
*893 integrator_reg\[2\]\[11\]
*894 integrator_reg\[1\]\[4\]
*895 integrator_reg\[1\]\[5\]
*896 integrator_reg\[1\]\[6\]
*897 integrator_reg\[1\]\[7\]
*898 integrator_reg\[1\]\[8\]
*899 integrator_reg\[1\]\[9\]
*900 integrator_reg\[1\]\[10\]
*901 integrator_reg\[2\]\[3\]
*902 integrator_reg\[1\]\[11\]
*903 integrator_reg\[1\]\[12\]
*904 integrator_reg\[2\]\[16\]
*905 integrator_reg\[1\]\[14\]
*906 integrator_reg\[1\]\[15\]
*907 integrator_reg\[1\]\[16\]
*908 integrator_reg\[1\]\[17\]
*909 integrator_reg\[1\]\[18\]
*910 integrator_reg\[1\]\[19\]
*911 integrator_reg\[2\]\[0\]
*912 integrator_reg\[2\]\[1\]
*913 integrator_reg\[2\]\[2\]
*914 integrator_reg\[2\]\[4\]
*915 integrator_reg\[2\]\[5\]
*916 integrator_reg\[2\]\[6\]
*917 integrator_reg\[2\]\[7\]
*918 integrator_reg\[2\]\[8\]
*919 integrator_reg\[2\]\[9\]
*920 integrator_reg\[2\]\[10\]
*921 integrator_reg\[2\]\[12\]
*922 integrator_reg\[2\]\[13\]
*923 integrator_reg\[2\]\[14\]
*924 integrator_reg\[1\]\[13\]
*925 integrator_reg\[2\]\[17\]
*926 integrator_reg\[2\]\[18\]
*927 integrator_reg\[3\]\[0\]
*928 integrator_reg\[3\]\[1\]
*929 integrator_reg\[3\]\[2\]
*930 integrator_reg\[3\]\[3\]
*931 integrator_reg\[3\]\[4\]
*932 integrator_reg\[3\]\[5\]
*933 integrator_reg\[3\]\[6\]
*934 integrator_reg\[3\]\[8\]
*935 integrator_reg\[3\]\[9\]
*936 integrator_reg\[3\]\[10\]
*937 integrator_reg\[3\]\[12\]
*938 integrator_reg\[3\]\[13\]
*939 integrator_reg\[3\]\[14\]
*940 integrator_reg\[3\]\[16\]
*941 integrator_reg\[3\]\[17\]
*942 integrator_reg\[3\]\[18\]
*943 integrator_reg\[3\]\[19\]
*944 d_comb_reg\[1\]\[1\]\[0\]
*945 d_comb_reg\[2\]\[1\]\[19\]
*946 d_comb_reg\[1\]\[1\]\[19\]
*947 d_comb_reg\[2\]\[1\]\[0\]
*948 sub_75_30_I2_g1316__2883
*949 sub_75_30_I2_g1317__2346
*950 sub_75_30_I2_g1318__1666
*951 sub_75_30_I2_g1319__7410
*952 sub_75_30_I2_g1320__6417
*953 sub_75_30_I2_g1321__5477
*954 sub_75_30_I2_g1322__2398
*955 sub_75_30_I2_g1323__5107
*956 sub_75_30_I2_g1324__6260
*957 sub_75_30_I2_g1325__4319
*958 sub_75_30_I2_g1326__8428
*959 sub_75_30_I2_g1327__5526
*960 sub_75_30_I2_g1328__6783
*961 sub_75_30_I2_g1329__3680
*962 sub_75_30_I2_g1330__1617
*963 sub_75_30_I2_g1331__2802
*964 sub_75_30_I2_g1332__1705
*965 sub_75_30_I2_g1333__5122
*966 sub_75_30_I2_g1334__8246
*967 sub_75_30_I2_g1335__7098
*968 sub_75_30_I2_g1336__6131
*969 sub_75_30_I2_g1348
*970 sub_75_30_I1_g1316__1881
*971 sub_75_30_I1_g1317__5115
*972 sub_75_30_I1_g1318__7482
*973 sub_75_30_I1_g1319__4733
*974 sub_75_30_I1_g1320__6161
*975 sub_75_30_I1_g1321__9315
*976 sub_75_30_I1_g1322__9945
*977 sub_75_30_I1_g1323__2883
*978 sub_75_30_I1_g1324__2346
*979 sub_75_30_I1_g1325__1666
*980 sub_75_30_I1_g1326__7410
*981 sub_75_30_I1_g1327__6417
*982 sub_75_30_I1_g1328__5477
*983 sub_75_30_I1_g1329__2398
*984 sub_75_30_I1_g1330__5107
*985 sub_75_30_I1_g1331__6260
*986 sub_75_30_I1_g1332__4319
*987 sub_75_30_I1_g1333__8428
*988 sub_75_30_I1_g1334__5526
*989 sub_75_30_I1_g1335__6783
*990 sub_75_30_I1_g1336__3680
*991 sub_75_30_I1_g1348
*992 ADD_TC_OP_g464__1617
*993 ADD_TC_OP_g465__2802
*994 ADD_TC_OP_g466__1705
*995 ADD_TC_OP_g467__5122
*996 ADD_TC_OP_g468__8246
*997 ADD_TC_OP_g469__7098
*998 ADD_TC_OP_g470__6131
*999 ADD_TC_OP_g471__1881
*1000 ADD_TC_OP_g472__5115
*1001 ADD_TC_OP_g473__7482
*1002 ADD_TC_OP_g474__4733
*1003 ADD_TC_OP_g475__6161
*1004 ADD_TC_OP_g476__9315
*1005 ADD_TC_OP_g477__9945
*1006 ADD_TC_OP_g478__2883
*1007 ADD_TC_OP_g479__2346
*1008 ADD_TC_OP_g480__1666
*1009 ADD_TC_OP_g481__7410
*1010 ADD_TC_OP_g482__6417
*1011 ADD_TC_OP_g483__5477
*1012 ADD_TC_OP_1_g1208__2398
*1013 ADD_TC_OP_1_g1209__5107
*1014 ADD_TC_OP_1_g1210__6260
*1015 ADD_TC_OP_1_g1211__4319
*1016 ADD_TC_OP_1_g1212__8428
*1017 ADD_TC_OP_1_g1213__5526
*1018 ADD_TC_OP_1_g1214__6783
*1019 ADD_TC_OP_1_g1215__3680
*1020 ADD_TC_OP_1_g1216__1617
*1021 ADD_TC_OP_1_g1217__2802
*1022 ADD_TC_OP_1_g1218__1705
*1023 ADD_TC_OP_1_g1219__5122
*1024 ADD_TC_OP_1_g1220__8246
*1025 ADD_TC_OP_1_g1221__7098
*1026 ADD_TC_OP_1_g1222__6131
*1027 ADD_TC_OP_1_g1223__1881
*1028 ADD_TC_OP_1_g1224__5115
*1029 ADD_TC_OP_1_g1225__7482
*1030 ADD_TC_OP_1_g1226__4733
*1031 ADD_TC_OP_1_g1227__6161
*1032 ADD_TC_OP_2_g1208__9315
*1033 ADD_TC_OP_2_g1209__9945
*1034 ADD_TC_OP_2_g1210__2883
*1035 ADD_TC_OP_2_g1211__2346
*1036 ADD_TC_OP_2_g1212__1666
*1037 ADD_TC_OP_2_g1213__7410
*1038 ADD_TC_OP_2_g1214__6417
*1039 ADD_TC_OP_2_g1215__5477
*1040 ADD_TC_OP_2_g1216__2398
*1041 ADD_TC_OP_2_g1217__5107
*1042 ADD_TC_OP_2_g1218__6260
*1043 ADD_TC_OP_2_g1219__4319
*1044 ADD_TC_OP_2_g1220__8428
*1045 ADD_TC_OP_2_g1221__5526
*1046 ADD_TC_OP_2_g1222__6783
*1047 ADD_TC_OP_2_g1223__3680
*1048 ADD_TC_OP_2_g1224__1617
*1049 ADD_TC_OP_2_g1225__2802
*1050 ADD_TC_OP_2_g1226__1705
*1051 ADD_TC_OP_2_g1227__5122
*1052 ADD_TC_OP_3_g1208__8246
*1053 ADD_TC_OP_3_g1209__7098
*1054 ADD_TC_OP_3_g1210__6131
*1055 ADD_TC_OP_3_g1211__1881
*1056 ADD_TC_OP_3_g1212__5115
*1057 ADD_TC_OP_3_g1213__7482
*1058 ADD_TC_OP_3_g1214__4733
*1059 ADD_TC_OP_3_g1215__6161
*1060 ADD_TC_OP_3_g1216__9315
*1061 ADD_TC_OP_3_g1217__9945
*1062 ADD_TC_OP_3_g1218__2883
*1063 ADD_TC_OP_3_g1219__2346
*1064 ADD_TC_OP_3_g1220__1666
*1065 ADD_TC_OP_3_g1221__7410
*1066 ADD_TC_OP_3_g1222__6417
*1067 ADD_TC_OP_3_g1223__5477
*1068 ADD_TC_OP_3_g1224__2398
*1069 ADD_TC_OP_3_g1225__5107
*1070 ADD_TC_OP_3_g1226__6260
*1071 ADD_TC_OP_3_g1227__4319
*1072 sub_72_24_g1269__8428
*1073 sub_72_24_g1270__5526
*1074 sub_72_24_g1271__6783
*1075 sub_72_24_g1272__3680
*1076 sub_72_24_g1273__1617
*1077 sub_72_24_g1274__2802
*1078 sub_72_24_g1275__1705
*1079 sub_72_24_g1276__5122
*1080 sub_72_24_g1277__8246
*1081 sub_72_24_g1278__7098
*1082 sub_72_24_g1279__6131
*1083 sub_72_24_g1280__1881
*1084 sub_72_24_g1281__5115
*1085 sub_72_24_g1282__7482
*1086 sub_72_24_g1283__4733
*1087 sub_72_24_g1284__6161
*1088 sub_72_24_g1285__9315
*1089 sub_72_24_g1286__9945
*1090 sub_72_24_g1287__2883
*1091 sub_72_24_g1288__2346
*1092 sub_72_24_g1289__1666
*1093 d_comb_reg\[2\]\[1\]\[1\]
*1094 d_comb_reg\[2\]\[1\]\[14\]
*1095 d_comb_reg\[2\]\[1\]\[7\]
*1096 d_comb_reg\[2\]\[1\]\[13\]
*1097 d_comb_reg\[2\]\[1\]\[17\]
*1098 d_comb_reg\[2\]\[1\]\[9\]
*1099 d_comb_reg\[2\]\[1\]\[11\]
*1100 d_comb_reg\[2\]\[1\]\[12\]
*1101 d_comb_reg\[2\]\[1\]\[6\]
*1102 d_comb_reg\[2\]\[1\]\[3\]
*1103 d_comb_reg\[2\]\[1\]\[16\]
*1104 d_comb_reg\[2\]\[1\]\[8\]
*1105 d_comb_reg\[2\]\[1\]\[18\]
*1106 d_comb_reg\[2\]\[1\]\[15\]
*1107 d_comb_reg\[2\]\[1\]\[10\]
*1108 d_comb_reg\[2\]\[1\]\[2\]
*1109 d_comb_reg\[2\]\[1\]\[4\]
*1110 d_comb_reg\[2\]\[1\]\[5\]
*1111 d_comb_reg\[1\]\[1\]\[1\]
*1112 d_comb_reg\[1\]\[1\]\[14\]
*1113 d_comb_reg\[1\]\[1\]\[7\]
*1114 d_comb_reg\[1\]\[1\]\[13\]
*1115 d_comb_reg\[1\]\[1\]\[17\]
*1116 d_comb_reg\[1\]\[1\]\[9\]
*1117 d_comb_reg\[1\]\[1\]\[11\]
*1118 d_comb_reg\[1\]\[1\]\[12\]
*1119 d_comb_reg\[1\]\[1\]\[6\]
*1120 d_comb_reg\[1\]\[1\]\[3\]
*1121 d_comb_reg\[1\]\[1\]\[16\]
*1122 d_comb_reg\[1\]\[1\]\[8\]
*1123 d_comb_reg\[1\]\[1\]\[18\]
*1124 d_comb_reg\[1\]\[1\]\[15\]
*1125 d_comb_reg\[1\]\[1\]\[10\]
*1126 d_comb_reg\[1\]\[1\]\[2\]
*1127 d_comb_reg\[1\]\[1\]\[4\]
*1128 d_comb_reg\[1\]\[1\]\[5\]
*1129 d_comb_reg\[0\]\[1\]\[1\]
*1130 d_comb_reg\[0\]\[1\]\[14\]
*1131 d_comb_reg\[0\]\[1\]\[7\]
*1132 d_comb_reg\[0\]\[1\]\[13\]
*1133 d_comb_reg\[0\]\[1\]\[17\]
*1134 d_comb_reg\[0\]\[1\]\[9\]
*1135 d_comb_reg\[0\]\[1\]\[11\]
*1136 d_comb_reg\[0\]\[1\]\[12\]
*1137 d_comb_reg\[0\]\[1\]\[6\]
*1138 d_comb_reg\[0\]\[1\]\[3\]
*1139 d_comb_reg\[0\]\[1\]\[16\]
*1140 d_tmp_reg\[0\]
*1141 d_comb_reg\[0\]\[1\]\[8\]
*1142 d_comb_reg\[0\]\[1\]\[18\]
*1143 d_comb_reg\[0\]\[1\]\[15\]
*1144 d_comb_reg\[0\]\[1\]\[10\]
*1145 d_comb_reg\[0\]\[1\]\[2\]
*1146 d_comb_reg\[0\]\[1\]\[4\]
*1147 d_comb_reg\[0\]\[1\]\[5\]


*PORTS

*7 I *C 131.01 236.88
*8 I *C 26.07 0
*9 I *C 110.55 236.88
*10 I *C 204.93 236.88
*11 I *C 218.13 236.88
*12 I *C 223.41 236.88
*13 I *C 139.59 236.88
*14 I *C 140.91 236.88
*15 O *C 0 54.6
*16 O *C 0 46.76
*17 O *C 0 46.76
*18 O *C 0 54.04


*D_NET *1 0.000300464

*CONN
*I *694:B I *C 132.33 183.96 *L 0.00266 *D OR2X1
*I *692:Y O *C 131.01 185.08 *L 0 *D TIELO

*CAP
1 *1:1 3.41647e-05
2 *1:2 3.41647e-05
3 *1:3 8.19028e-05
4 *1:4 8.19028e-05
5 *1:5 3.41647e-05
6 *1:6 3.41647e-05

*RES
1 *1:6 *692:Y 6.4
2 *1:5 *1:6 0.0825457
3 *1:4 *1:5 6.4
4 *1:3 *1:4 0.367705
5 *1:2 *1:3 6.4
6 *1:1 *1:2 0.0825457
7 *694:B *1:1 6.4
*END

*D_NET *2 0.000382367

*CONN
*I *690:B I *C 137.61 183.96 *L 0.00266 *D OR2X1
*I *688:Y O *C 139.59 185.08 *L 0 *D TIELO

*CAP
1 *2:2 0.000122854
2 *2:3 0.000122854
3 *2:4 6.83293e-05
4 *2:5 6.83293e-05

*RES
1 *2:5 *688:Y 6.4
2 *2:4 *2:5 0.165091
3 *2:3 *2:4 6.4
4 *2:2 *2:3 0.551558
5 *2:1 *2:2 6.4
6 *690:B *2:1 6.4
*END

*D_NET *3 0.000300464

*CONN
*I *686:B I *C 142.89 183.96 *L 0.00266 *D OR2X1
*I *684:Y O *C 141.57 185.08 *L 0 *D TIELO

*CAP
1 *3:2 8.19028e-05
2 *3:3 8.19028e-05
3 *3:4 6.83293e-05
4 *3:5 6.83293e-05

*RES
1 *3:5 *684:Y 6.4
2 *3:4 *3:5 0.165091
3 *3:3 *3:4 6.4
4 *3:2 *3:3 0.367705
5 *3:1 *3:2 6.4
6 *686:B *3:1 6.4
*END

*D_NET *4 0.102694

*CONN
*I *865:RN I *C 215.49 209.72 *L 0.00409 *D DFFRHQX1
*I *884:RN I *C 229.35 203.56 *L 0.00409 *D DFFRHQX1
*I *890:RN I *C 229.35 193.48 *L 0.00409 *D DFFRHQX1
*I *888:RN I *C 229.35 189.56 *L 0.00409 *D DFFRHQX1
*I *912:RN I *C 218.79 179.48 *L 0.00409 *D DFFRHQX1
*I *911:RN I *C 218.79 173.32 *L 0.00409 *D DFFRHQX1
*I *913:RN I *C 203.61 173.32 *L 0.00409 *D DFFRHQX1
*I *901:RN I *C 188.43 173.32 *L 0.00409 *D DFFRHQX1
*I *891:RN I *C 202.29 189.56 *L 0.00409 *D DFFRHQX1
*I *894:RN I *C 181.83 183.4 *L 0.00409 *D DFFRHQX1
*I *895:RN I *C 166.65 183.4 *L 0.00409 *D DFFRHQX1
*I *892:RN I *C 186.45 189.56 *L 0.00409 *D DFFRHQX1
*I *914:RN I *C 177.87 169.4 *L 0.00409 *D DFFRHQX1
*I *896:RN I *C 158.73 179.48 *L 0.00409 *D DFFRHQX1
*I *870:RN I *C 171.93 203.56 *L 0.00409 *D DFFRHQX1
*I *915:RN I *C 175.23 163.24 *L 0.00409 *D DFFRHQX1
*I *871:RN I *C 167.97 203.56 *L 0.00409 *D DFFRHQX1
*I *916:RN I *C 159.39 163.24 *L 0.00409 *D DFFRHQX1
*I *867:RN I *C 187.11 203.56 *L 0.00409 *D DFFRHQX1
*I *872:RN I *C 153.45 203.56 *L 0.00409 *D DFFRHQX1
*I *868:RN I *C 188.43 209.72 *L 0.00409 *D DFFRHQX1
*I *931:RN I *C 184.47 153.16 *L 0.00409 *D DFFRHQX1
*I *930:RN I *C 200.97 153.16 *L 0.00409 *D DFFRHQX1
*I *866:RN I *C 201.63 203.56 *L 0.00409 *D DFFRHQX1